64
0.0 11.3806030 0.0 11.3806030 0.0 11.3806030 
Na  0.0000000  0.0000000  0.0000000 
Na  5.6903015  0.0000000  0.0000000 
Na  0.0000000  5.6903015  0.0000000 
Na  5.6903015  5.6903015  0.0000000 
Na  0.0000000  0.0000000  5.6903015 
Na  5.6903015  0.0000000  5.6903015 
Na  0.0000000  5.6903015  5.6903015 
Na  5.6903015  5.6903015  5.6903015 
Na  0.0000000  2.8451507  2.8451507 
Na  5.6903015  2.8451507  2.8451507 
Na  0.0000000  8.5354522  2.8451507 
Na  5.6903015  8.5354522  2.8451507 
Na  0.0000000  2.8451507  8.5354522 
Na  5.6903015  2.8451507  8.5354522 
Na  0.0000000  8.5354522  8.5354522 
Na  5.6903015  8.5354522  8.5354522 
Na  2.8451507  0.0000000  2.8451507 
Na  8.5354522  0.0000000  2.8451507 
Na  2.8451507  5.6903015  2.8451507 
Na  8.5354522  5.6903015  2.8451507 
Na  2.8451507  0.0000000  8.5354522 
Na  8.5354522  0.0000000  8.5354522 
Na  2.8451507  5.6903015  8.5354522 
Na  8.5354522  5.6903015  8.5354522 
Na  2.8451507  2.8451507  0.0000000 
Na  8.5354522  2.8451507  0.0000000 
Na  2.8451507  8.5354522  0.0000000 
Na  8.5354522  8.5354522  0.0000000 
Na  2.8451507  2.8451507  5.6903015 
Na  8.5354522  2.8451507  5.6903015 
Na  2.8451507  8.5354522  5.6903015 
Na  8.5354522  8.5354522  5.6903015 
Cl  2.8451507  2.8451507  2.8451507 
Cl  8.5354522  2.8451507  2.8451507 
Cl  2.8451507  8.5354522  2.8451507 
Cl  8.5354522  8.5354522  2.8451507 
Cl  2.8451507  2.8451507  8.5354522 
Cl  8.5354522  2.8451507  8.5354522 
Cl  2.8451507  8.5354522  8.5354522 
Cl  8.5354522  8.5354522  8.5354522 
Cl  2.8451507  0.0000000  0.0000000 
Cl  8.5354522  0.0000000  0.0000000 
Cl  2.8451507  5.6903015  0.0000000 
Cl  8.5354522  5.6903015  0.0000000 
Cl  2.8451507  0.0000000  5.6903015 
Cl  8.5354522  0.0000000  5.6903015 
Cl  2.8451507  5.6903015  5.6903015 
Cl  8.5354522  5.6903015  5.6903015 
Cl  0.0000000  2.8451507  0.0000000 
Cl  5.6903015  2.8451507  0.0000000 
Cl  0.0000000  8.5354522  0.0000000 
Cl  5.6903015  8.5354522  0.0000000 
Cl  0.0000000  2.8451507  5.6903015 
Cl  5.6903015  2.8451507  5.6903015 
Cl  0.0000000  8.5354522  5.6903015 
Cl  5.6903015  8.5354522  5.6903015 
Cl  0.0000000  0.0000000  2.8451507 
Cl  5.6903015  0.0000000  2.8451507 
Cl  0.0000000  5.6903015  2.8451507 
Cl  5.6903015  5.6903015  2.8451507 
Cl  0.0000000  0.0000000  8.5354522 
Cl  5.6903015  0.0000000  8.5354522 
Cl  0.0000000  5.6903015  8.5354522 
Cl  5.6903015  5.6903015  8.5354522 
