8
0.0000000000000  5.6903014761757  0.0000000000000  5.6903014761757  0.0000000000000  5.6903014761757  
Na  0.0000000000000  0.0000000000000  0.0000000000000  
Na  0.0000000000000  2.8451507380878  2.8451507380878  
Na  2.8451507380878  0.0000000000000  2.8451507380878  
K  2.8451507380878  2.8451507380878  0.0000000000000  
Cl  2.8451507380878  2.8451507380878  2.8451507380878  
Cl  2.8451507380878  0.0000000000000  0.0000000000000  
Cl  0.0000000000000  2.8451507380878  0.0000000000000  
Cl  0.0000000000000  0.0000000000000  2.8451507380878  
